59
Coordinates from ORCA-job TSOA_pyr
  Cu  0.72846251582091     -0.27365554698335      0.26735167339180
  C   -1.32392977266629      3.77157002118522     -0.26935803586232
  C   -2.65375611949433      3.37961459507914     -0.36096159473548
  C   -2.94872819130609      1.99725689025231     -0.26962808744346
  C   -1.87999855262284      1.08785036272417     -0.11856229852295
  N   -0.60145679774800      1.49080632555027     -0.06479248248511
  C   -0.34942570399592      2.77556459149267     -0.12236995361861
  C   -4.27377558629113      1.47454331891307     -0.31790387772571
  C   -4.52080476454076      0.14607406523859     -0.21413205136722
  C   -3.46837731895017     -0.80008151247350     -0.04394040454015
  C   -2.14506382110030     -0.31654923596980      0.00135290152950
  C   -3.68405735363242     -2.19447310596281      0.08540553651836
  C   -2.57915644274905     -3.01429998026540      0.27989765576069
  C   -1.30890477530217     -2.42442159922431      0.30894558173422
  N   -1.09764885629611     -1.13812881267378      0.16535230101742
  H   -0.42858710697572     -3.03262142420076      0.46977558673714
  C   -2.68390344489092     -4.49888013932337      0.44797715838110
  H   -5.53778836634771     -0.20828627864899     -0.25158294044750
  C   -5.07512213729743     -2.74136265687382      0.01117836906202
  C   -3.76209770925223      4.36826992882781     -0.54383780894373
  H   -5.09855277279229      2.15805847531933     -0.43603097605745
  H   0.69316073166168      3.05356609980471     -0.04387087420476
  C   -0.89060084392438      5.20442682294746     -0.33018394381636
  H   0.18673837764802      5.27568462062849     -0.20653984669251
  H   -1.15587943896506      5.64427770311980     -1.29037217915852
  H   -1.36674176945642      5.78493020349205      0.45819232279656
  H   -4.43534751693735      4.33709401348486      0.31181759352185
  H   -3.38069315302970      5.37758281848591     -0.64538524799935
  H   -4.33615412974722      4.12397451690225     -1.43601199116296
  H   -5.67943789417113     -2.34003474176437      0.82365886881635
  H   -5.53740136572449     -2.45333004551854     -0.93145891883520
  H   -5.07903525934779     -3.82281590281724      0.08040129981985
  H   -1.69986680711559     -4.91917585074900      0.63816227176677
  H   -3.33194465796052     -4.74887799489630      1.28627307279748
  H   -3.08769544177250     -4.95991008624110     -0.45226408724693
  N   1.05589702942036     -0.16170921229758      2.19580777413444
  H   2.35291495989705      1.96794391485250     -1.06662437658978
  C   2.96116304115839      1.36624762343962     -0.40993707351004
  C   2.67164641240389      0.02060408796238     -0.22889975371692
  C   4.04435438961356      1.92000519369744      0.25066231854451
  C   3.51165906293646     -0.79342461267648      0.51985998817781
  C   4.85642140917006      1.13054946792220      1.04853531319058
  H   4.26036101681704      2.97041081315298      0.12537983121508
  C   4.58979153523093     -0.22493910616694      1.17369095122467
  H   3.30731569368955     -1.84875280812750      0.62164284349815
  H   5.70561369565178      1.56296719347441      1.55483353344007
  H   5.22866015782280     -0.85353971155306      1.77662662039184
  I   1.62811380174740     -1.00188533885350     -2.03404283284862
  C   1.24245192300823     -1.30457677330200      2.82076392499470
  C   1.50894853912154     -1.07430397940340      4.31679291409309
  C   1.09873543085590      0.38069344917057      4.51602986741642
  H   2.57476208127662     -1.23247840065449      4.49953745421122
  H   0.94856238919143     -1.78205702625508      4.92701720601319
  C   1.17177509536466      0.96533356062413      3.09138346955322
  H   1.74695617311076      0.91622290454194      5.20788302116786
  H   0.07317203312118      0.43423899917463      4.88578789537952
  H   2.13311004338268      1.47427507691959      2.92226883818186
  H   0.37152372369106      1.68778804034847      2.89636654878391
  O   1.22684260959009     -2.42121381485256      2.28190913026836
